tests/golden/reports/show_faultstudy_unbased.txt
FAULT STUDY REPORT

ALL-Node Fault Currents

Bus         Node            Amps   X/R Node            Amps   X/R Node            Amps   X/R ...

"SRC"         1          92598   4.0    2          92598   4.0    3          92598   4.0
"B1"          1          33976   1.5    2          33976   1.5    3          33976   1.5
"B2"          1           9917   1.3


ONE-Node to ground Faults

                                      pu Node Voltages (L-N Volts if no base)
Bus            Node  Amps         Node 1     Node 2     Node 3    ...

"SRC"             1        97228            0.0     6873.0     7182.2
"SRC"             2        97228         7181.8        0.0     6873.0
"SRC"             3        97228         6872.6     7182.2        0.0
"B1"              1        23268            0.0     8962.4     8212.4
"B1"              2        23271         8210.2        0.0     8962.0
"B1"              3        23268         8960.0     8212.9        0.0
"B2"              1         9917            0.0

Adjacent Node-Node Faults

                                        pu Node Voltages (L-N Volts if no base)
Bus          Node-Node      Amps        Node 1     Node 2     Node 3    ...

"SRC"            1   2       80178        3603.4     3595.7     7199.3
"SRC"            1   3       80181        3595.7     7199.3     3603.4
"SRC"            2   3       80180        7198.9     3603.5     3595.7
"B1"             1   2       29419        3599.9     3597.4     7198.8
"B1"             1   3       29421        3597.4     7198.8     3599.9
"B1"             2   3       29420        7196.5     3601.1     3598.6
